CE
GW 1 20 0 -10.49566 0 0 -0.1 0 0.001
GW 2 20 0 0.1 0 0 10.49566 0 0.001
GW 3 11 0 -0.1 -5.22783 0 -0.1 0 0.001
GW 4 11 0 0.1 -5.22783 0 0.1 0 0.001
GW 5 1 0 -0.1 -5.22783 0 0.1 -5.22783 0.001
GM 0 0 0 0 0 0 0 20.5 0
GS 0 0 1
GE 1
GN 2 0 0 0 13 0.005
FR 0 1 0 0 14.05 0
EX 0 1 10 0 1.0000 0.0000
RP 0 1 360 1000 70 0 0 1
RP 0 181 1 1000 90 0 -1 0
EN