CE CYLINDER WITH ATTACHED WIRES
SP 0 0 10 0 7.3333 0 0 38.4
SP 0 0 10 0 0 0 0 38.4
SP 0 0 10 0 -7.3333 0 0 38.4
GM 0 1 0 0 30
SP 0 0 6.89 0 11 90 0 44.88
SP 0 0 6.89 0 -11 -90 0 44.88
GR 0 6
SP 0 0 0 0 11 90 0 44.89
SP 0 0 0 0 -11 -90 0 44.89
GW 1 20 0 0 11 0 0 37.71 0.01
GW 2 20 0 0 -37.71 0 0 -11 0.01
GS 0 0 1.0
GE
FR 0 1 0 0 3.5
EX 0 1 1 0 1.0 0
EX 0 2 20 0 1.0 0
RP 0 1 360 1000 90 0 0 1
RP 0 181 1 1000 90 0 -1 0
EN
