CM Vertical 40M over metallic box (surface patch)
CE standing on Reflection Coefficients ground
SM 11 11 10 10 1 -10 10 1
SC 0 0 -10 -10 1
SM 11 1 10 10 1 10 -10 1
SC 0 0 10 -10 0
SM 11 1 -10 -10 1 -10 10 1
SC 0 0 -10 10 0
SM 11 1 -10 10 1 10 10 1
SC 0 0 10 10 0 
SM 11 1 10 -10 1 -10 -10 1
SC 0 0 -10 -10 0
GW 1 10 0 0 1 0 0 12.2 0.01
GS 0 0 1.0
GE 1
GN 0 0 0 0 13 0.005
FR 0 1 0 0 7.01
EX 0 1 1 0 1.0 0
RP 0 1 360 1000 65 0 0 1
RP 0 181 1 1000 90 0 -1 0
EN
