CM Двухэтажный диполь на 10M
CM Оба диполя запитаны синфазно
CE с помощью линии 1 lambda.
GW 1 39 0 -2.55803 0 0 2.55803 0 0.008
GM 1 1 0 0 0 0 0 7.1 0
GM 0 0 0 0 0 0 0 28 0
GS 0 0 1.0
GE 1
GN 2 0 0 0 30 0.001
FR 0 1 0 0 28.05 1
EX 0 1 20 0 1.0000 0.0000
TL 1 20 2 20 50 10.69518717
RP 0 1 360 1000 85 0 0 1
RP 0 181 1 1000 90 0 -1 0
EN
