CM ƒвухэтажный диполь над металлической крышей.
CM —етка большой плотности, частота 28.05 ћ√ц.
CM ƒиполь расположен вдоль  конька.
CM јзимут отсчитываетс€ от направлени€,
CM перепендикул€рного коньку крыши. Ёлементы 
CE запитаны синфазно с помощью линии длиной 1 lambda.
GW 1 39 0 -2.55803 7.1 0 2.55803 7.1 0.008
GW 2 39 0 -2.55803 0 0 2.55803 0 0.008
GM 0 0 0 0 90 0 0 1.5 0
GW 3 48 -12 -7 -3 12 -7 -3 0.001
GW 4 48 -12 -6.5 -2.78571 12 -6.5 -2.78571 0.001
GW 5 48 -12 -6 -2.57143 12 -6 -2.57143 0.001
GW 6 48 -12 -5.5 -2.35714 12 -5.5 -2.35714 0.001
GW 7 48 -12 -5 -2.14286 12 -5 -2.14286 0.001
GW 8 48 -12 -4.5 -1.92857 12 -4.5 -1.92857 0.001
GW 9 48 -12 -4 -1.71429 12 -4 -1.71429 0.001
GW 10 48 -12 -3.5 -1.5 12 -3.5 -1.5 0.001
GW 11 48 -12 -3 -1.28571 12 -3 -1.28571 0.001
GW 12 48 -12 -2.5 -1.07143 12 -2.5 -1.07143 0.001
GW 13 48 -12 -2 -0.85714 12 -2 -0.85714 0.001
GW 14 48 -12 -1.5 -0.64286 12 -1.5 -0.64286 0.001
GW 15 48 -12 -1 -0.42857 12 -1 -0.42857 0.001
GW 16 48 -12 -0.5 -0.21429 12 -0.5 -0.21429 0.001
GW 17 48 -12 0 0 12 0 0 0.001
GW 18 48 -12 0.5 -0.21429 12 0.5 -0.21429 0.001
GW 19 48 -12 1 -0.42857 12 1 -0.42857 0.001
GW 20 48 -12 1.5 -0.64286 12 1.5 -0.64286 0.001
GW 21 48 -12 2 -0.85714 12 2 -0.85714 0.001
GW 22 48 -12 2.5 -1.07143 12 2.5 -1.07143 0.001
GW 23 48 -12 3 -1.28571 12 3 -1.28571 0.001
GW 24 48 -12 3.5 -1.5 12 3.5 -1.5 0.001
GW 25 48 -12 4 -1.71429 12 4 -1.71429 0.001
GW 26 48 -12 4.5 -1.92857 12 4.5 -1.92857 0.001
GW 27 48 -12 5 -2.14286 12 5 -2.14286 0.001
GW 28 48 -12 5.5 -2.35714 12 5.5 -2.35714 0.001
GW 29 48 -12 6 -2.57143 12 6 -2.57143 0.001
GW 30 48 -12 6.5 -2.78571 12 6.5 -2.78571 0.001
GW 31 48 -12 7 -3 12 7 -3 0.001
GW 32 14 -12 -7 -3 -12 0 0 0.001
GW 33 14 -11.5 -7 -3 -11.5 0 0 0.001
GW 34 14 -11 -7 -3 -11 0 0 0.001
GW 35 14 -10.5 -7 -3 -10.5 0 0 0.001
GW 36 14 -10 -7 -3 -10 0 0 0.001
GW 37 14 -9.5 -7 -3 -9.5 0 0 0.001
GW 38 14 -9 -7 -3 -9 0 0 0.001
GW 39 14 -8.5 -7 -3 -8.5 0 0 0.001
GW 40 14 -8 -7 -3 -8 0 0 0.001
GW 41 14 -7.5 -7 -3 -7.5 0 0 0.001
GW 42 14 -7 -7 -3 -7 0 0 0.001
GW 43 14 -6.5 -7 -3 -6.5 0 0 0.001
GW 44 14 -6 -7 -3 -6 0 0 0.001
GW 45 14 -5.5 -7 -3 -5.5 0 0 0.001
GW 46 14 -5 -7 -3 -5 0 0 0.001
GW 47 14 -4.5 -7 -3 -4.5 0 0 0.001
GW 48 14 -4 -7 -3 -4 0 0 0.001
GW 49 14 -3.5 -7 -3 -3.5 0 0 0.001
GW 50 14 -3 -7 -3 -3 0 0 0.001
GW 51 14 -2.5 -7 -3 -2.5 0 0 0.001
GW 52 14 -2 -7 -3 -2 0 0 0.001
GW 53 14 -1.5 -7 -3 -1.5 0 0 0.001
GW 54 14 -1 -7 -3 -1 0 0 0.001
GW 55 14 -0.5 -7 -3 -0.5 0 0 0.001
GW 56 14 0 -7 -3 0 0 0 0.001
GW 57 14 0.5 -7 -3 0.5 0 0 0.001
GW 58 14 1 -7 -3 1 0 0 0.001
GW 59 14 1.5 -7 -3 1.5 0 0 0.001
GW 60 14 2 -7 -3 2 0 0 0.001
GW 61 14 2.5 -7 -3 2.5 0 0 0.001
GW 62 14 3 -7 -3 3 0 0 0.001
GW 63 14 3.5 -7 -3 3.5 0 0 0.001
GW 64 14 4 -7 -3 4 0 0 0.001
GW 65 14 4.5 -7 -3 4.5 0 0 0.001
GW 66 14 5 -7 -3 5 0 0 0.001
GW 67 14 5.5 -7 -3 5.5 0 0 0.001
GW 68 14 6 -7 -3 6 0 0 0.001
GW 69 14 6.5 -7 -3 6.5 0 0 0.001
GW 70 14 7 -7 -3 7 0 0 0.001
GW 71 14 7.5 -7 -3 7.5 0 0 0.001
GW 72 14 8 -7 -3 8 0 0 0.001
GW 73 14 8.5 -7 -3 8.5 0 0 0.001
GW 74 14 9 -7 -3 9 0 0 0.001
GW 75 14 9.5 -7 -3 9.5 0 0 0.001
GW 76 14 10 -7 -3 10 0 0 0.001
GW 77 14 10.5 -7 -3 10.5 0 0 0.001
GW 78 14 11 -7 -3 11 0 0 0.001
GW 79 14 11.5 -7 -3 11.5 0 0 0.001
GW 80 14 12 -7 -3 12 0 0 0.001
GW 81 14 -12 0 0 -12 7 -3 0.001
GW 82 14 -11.5 0 0 -11.5 7 -3 0.001
GW 83 14 -11 0 0 -11 7 -3 0.001
GW 84 14 -10.5 0 0 -10.5 7 -3 0.001
GW 85 14 -10 0 0 -10 7 -3 0.001
GW 86 14 -9.5 0 0 -9.5 7 -3 0.001
GW 87 14 -9 0 0 -9 7 -3 0.001
GW 88 14 -8.5 0 0 -8.5 7 -3 0.001
GW 89 14 -8 0 0 -8 7 -3 0.001
GW 90 14 -7.5 0 0 -7.5 7 -3 0.001
GW 91 14 -7 0 0 -7 7 -3 0.001
GW 92 14 -6.5 0 0 -6.5 7 -3 0.001
GW 93 14 -6 0 0 -6 7 -3 0.001
GW 94 14 -5.5 0 0 -5.5 7 -3 0.001
GW 95 14 -5 0 0 -5 7 -3 0.001
GW 96 14 -4.5 0 0 -4.5 7 -3 0.001
GW 97 14 -4 0 0 -4 7 -3 0.001
GW 98 14 -3.5 0 0 -3.5 7 -3 0.001
GW 99 14 -3 0 0 -3 7 -3 0.001
GW 100 14 -2.5 0 0 -2.5 7 -3 0.001
GW 101 14 -2 0 0 -2 7 -3 0.001
GW 102 14 -1.5 0 0 -1.5 7 -3 0.001
GW 103 14 -1 0 0 -1 7 -3 0.001
GW 104 14 -0.5 0 0 -0.5 7 -3 0.001
GW 105 14 0 0 0 0 7 -3 0.001
GW 106 14 0.5 0 0 0.5 7 -3 0.001
GW 107 14 1 0 0 1 7 -3 0.001
GW 108 14 1.5 0 0 1.5 7 -3 0.001
GW 109 14 2 0 0 2 7 -3 0.001
GW 110 14 2.5 0 0 2.5 7 -3 0.001
GW 111 14 3 0 0 3 7 -3 0.001
GW 112 14 3.5 0 0 3.5 7 -3 0.001
GW 113 14 4 0 0 4 7 -3 0.001
GW 114 14 4.5 0 0 4.5 7 -3 0.001
GW 115 14 5 0 0 5 7 -3 0.001
GW 116 14 5.5 0 0 5.5 7 -3 0.001
GW 117 14 6 0 0 6 7 -3 0.001
GW 118 14 6.5 0 0 6.5 7 -3 0.001
GW 119 14 7 0 0 7 7 -3 0.001
GW 120 14 7.5 0 0 7.5 7 -3 0.001
GW 121 14 8 0 0 8 7 -3 0.001
GW 122 14 8.5 0 0 8.5 7 -3 0.001
GW 123 14 9 0 0 9 7 -3 0.001
GW 124 14 9.5 0 0 9.5 7 -3 0.001
GW 125 14 10 0 0 10 7 -3 0.001
GW 126 14 10.5 0 0 10.5 7 -3 0.001
GW 127 14 11 0 0 11 7 -3 0.001
GW 128 14 11.5 0 0 11.5 7 -3 0.001
GW 129 14 12 0 0 12 7 -3 0.001
GM 0 0 0 0 -90 0 0 28 0
GS 0 0 1.0
GE 1
GN 2 0 0 0 30 0.001
FR 0 1 0 0 28.05 1
TL 1 20 2 20 50 10.69518717
EX 0 2 20 0 1.0000 0.0000
RP 0 1 360 1000 85 0 0 1
RP 0 181 1 1000 90 0 -1 0
EN
