CE
GW 1 20 0 -0.49372 0 0 0.49372 0 0.0025
GM 1 3 0 0 0 0 0 1.560375 0
GM 0 0 0 0 0 0 0 2 0
GW 1001 5 0 0 1 0 0 1.01 0.000001
GS 0 0 1.0
GE 1
GN 1
FR 0 1 0 0 144.1 1
TL 2 10 1 10 50 2.081887578
TL 3 10 2 10 50 2.081887578
TL 4 10 3 10 50 2.081887578
TL 1 10 1001 3 25 0.520471894
EX 0 1001 3 0 1.0000 0.0000
RP 0 1 360 1000 84 0 0 1
RP 0 181 1 1000 90 0 -1 0
EN
