CM Коллинеарная антенна 1L как излучатель.
CM Источник расположен в середине одной из
CE излучающих частей.
GW 1 20 0 -10.49566 20.5 0 -0.1 20.5 0.001
GW 2 20 0 0.1 20.5 0 10.49566 20.5 0.001
GW 3 11 0 -0.1 15.27217 0 -0.1 20.5 0.001
GW 4 11 0 0.1 15.27217 0 0.1 20.5 0.001
GW 5 1 0 -0.1 15.27217 0 0.1 15.27217 0.001
GS 0 0 1.0
GE 1
EX 0 1 10 0 1.0000 0.0000
GN 2 0 0 0 30 0.001
FR 0 1 0 0 14.05 1
RP 0 1 360 1000 75 0 0 1
RP 0 181 1 1000 90 181 -1 0
EN
