CM Простой диполь 1.5 lambda на высоте 28 м
CE Число сегментов 130 на lambda, F=7.01 MHZ
GW 1 200 0 -31.79061 28 0 31.79061 28 0.001
GS 0 0 1.0
GE 1
EX 0 1 100 0 1.0000 0.0000
GN 2 0 0 0 30 0.001
FR 0 1 0 0 7.01 1
RP 0 1 360 1000 70 0 0 1
RP 0 181 1 1000 90 230 -1 0
EN
