CM Две GP на 12M с фазированным питанием
CM От одного источника
CM Сдвиг фаз осуществляется двумя линями
CM Длина линий подобрана под наилучшую
CM Форму диаграммы 
CE Оригинал в Phased Vert 12M.maa
GW 1 11 1.50502 0 28 1.50502 0 30.87835 0.008
GW 2 10 1.50502 -2.05061 26.00667 1.50502 0 28 0.008
GW 3 10 1.50502 2.05061 26.00667 1.50502 0 28 0.008
GW 4 11 -1.50502 0 28 -1.50502 0 30.87835 0.008
GW 5 10 -1.50502 -2.05061 26.00667 -1.50502 0 28 0.008
GW 6 10 -1.50502 2.05061 26.00667 -1.50502 0 28 0.008
GM 0 0 0 0 0 0 0 -28 0
GW 1000 5 0 0 1 0 0 1.001 0.000001
GM 0 0 0 0 0 0 0 28 0
GS 0 0 1.0
GE 1
TL 4 1 1000 3 75 2.604819277
TL 1 1 1000 3 75 5.202409639
EX 0 1000 3 0 1.0000 0.0000
GN 2 0 0 0 30 0.001
FR 0 1 0 0 24.9 1
RP 0 1 360 1000 85 0 0 1
RP 0 181 1 1000 90 0 -1 0
EN
