CM Простой пример двух фазированных вертикалов
CM над землей на расстоянии в lambda/4
CM Использованы источники тока, а их фазы
CE сдвинуты на 90 град.
GW 1 30 0 0 0 0 0 2.86632 0.008
GW 2 30 3.01204 0 0 3.01204 0 2.86632 0.008
GW 1000 5 1 0 1 1 0 1.001 0.000001
GS 0 0 1.0
GE 1
GN 1
FR 0 1 0 0 24.9 1
TL 1 1 1000 3 50 2.761445783
TL 2 1 1000 3 50 5.265060241
EX 0 1000 3 0 1.0000 0.0000
RP 0 1 360 1000 90 0 0 1
RP 0 181 1 1000 90 0 -1 0
EN
