CE
GW 1 20 0 -21.283 0 0 0 0 0.0015
GW 2 20 0 0 0 0 21.283 0 0.0015
GW 3 10 0 0 -21.283 0 0 0 0.0015
GM 0 0 0 0 0 0 0 25 0
GS 0 0 1
GE 1
GN 2 0 0 0 13 0.005
FR 0 1 0 0 3.51 1
EX 5 3 10 0 1 0
RP 0 1 360 1000 64 0 0 1
RP 0 181 1 1000 90 90 -1 0
EN
