CE Вертикал на 160 м, укороченный емкостной нагрузкой
GW 1 20 0 0 0 0 38.49162 0 0.002
GW 2 20 0 -38.49162 0 0 0 0 0.002
GW 3 20 38.49162 0 0 0 0 0 0.002
GW 4 20 0 0 0 -38.49162 0 0 0.002
GW 5 9 0 0 0 0 0 16 0.012
GW 6 11 0 19.5 10 0 0 16 0.002
GW 7 11 0 -19.5 10 0 0 16 0.002
GW 8 20 0 0 0 27.21769 27.21769 0 0.002
GW 9 20 0 0 0 27.21769 -27.21769 0 0.002
GW 10 20 0 0 0 -27.21769 27.21769 0 0.002
GW 11 20 0 0 0 -27.21769 -27.21769 0 0.002
GM 0 0 0 0 0 0 0 0.2 0
GS 0 0 1.0
GE 1
GN 2 0 0 0 30 0.001
FR 0 1 0 0 1.825 1
EX 0 5 1 0 1.0000 0.0000
RP 0 1 360 1000 62 0 0 1
RP 0 181 1 1000 90 90 -1 0
EN
